320
Lattice="33.169136 0.0 0.0 0.0 41.91999999999996 0.0 0.0 0.0 35.0104" Properties=species:S:1:pos:R:3 pbc="T T T"
P        3.31691360       2.13080608       0.70510946
P        3.31691360      39.78919392       8.04749054
P        0.00000000       2.13080608       3.67119054
P        0.00000000      39.78919392       5.08140946
P        0.00000000      12.61080608       0.70510946
P        0.00000000       8.34919392       8.04749054
P        3.31691360      12.61080608       3.67119054
P        3.31691360       8.34919392       5.08140946
P        3.31691360       2.13080608       9.45770946
P        3.31691360      39.78919392      16.80009054
P        0.00000000       2.13080608      12.42379054
P        0.00000000      39.78919392      13.83400946
P        0.00000000      12.61080608       9.45770946
P        0.00000000       8.34919392      16.80009054
P        3.31691360      12.61080608      12.42379054
P        3.31691360       8.34919392      13.83400946
P        3.31691360       2.13080608      18.21030946
P        3.31691360      39.78919392      25.55269054
P        0.00000000       2.13080608      21.17639054
P        0.00000000      39.78919392      22.58660946
P        0.00000000      12.61080608      18.21030946
P        0.00000000       8.34919392      25.55269054
P        3.31691360      12.61080608      21.17639054
P        3.31691360       8.34919392      22.58660946
P        3.31691360       2.13080608      26.96290946
P        3.31691360      39.78919392      34.30529054
P        0.00000000       2.13080608      29.92899054
P        0.00000000      39.78919392      31.33920946
P        0.00000000      12.61080608      26.96290946
P        0.00000000       8.34919392      34.30529054
P        3.31691360      12.61080608      29.92899054
P        3.31691360       8.34919392      31.33920946
P        3.31691360      23.09080608       0.70510946
P        3.31691360      18.82919392       8.04749054
P        0.00000000      23.09080608       3.67119054
P        0.00000000      18.82919392       5.08140946
P        0.00000000      33.57080608       0.70510946
P        0.00000000      29.30919392       8.04749054
P        3.31691360      33.57080608       3.67119054
P        3.31691360      29.30919392       5.08140946
P        3.31691360      23.09080608       9.45770946
P        3.31691360      18.82919392      16.80009054
P        0.00000000      23.09080608      12.42379054
P        0.00000000      18.82919392      13.83400946
P        0.00000000      33.57080608       9.45770946
P        0.00000000      29.30919392      16.80009054
P        3.31691360      33.57080608      12.42379054
P        3.31691360      29.30919392      13.83400946
P        3.31691360      23.09080608      18.21030946
P        3.31691360      18.82919392      25.55269054
P        0.00000000      23.09080608      21.17639054
P        0.00000000      18.82919392      22.58660946
P        0.00000000      33.57080608      18.21030946
P        0.00000000      29.30919392      25.55269054
P        3.31691360      33.57080608      21.17639054
P        3.31691360      29.30919392      22.58660946
P        3.31691360      23.09080608      26.96290946
P        3.31691360      18.82919392      34.30529054
P        0.00000000      23.09080608      29.92899054
P        0.00000000      18.82919392      31.33920946
P        0.00000000      33.57080608      26.96290946
P        0.00000000      29.30919392      34.30529054
P        3.31691360      33.57080608      29.92899054
P        3.31691360      29.30919392      31.33920946
P        9.95074080       2.13080608       0.70510946
P        9.95074080      39.78919392       8.04749054
P        6.63382720       2.13080608       3.67119054
P        6.63382720      39.78919392       5.08140946
P        6.63382720      12.61080608       0.70510946
P        6.63382720       8.34919392       8.04749054
P        9.95074080      12.61080608       3.67119054
P        9.95074080       8.34919392       5.08140946
P        9.95074080       2.13080608       9.45770946
P        9.95074080      39.78919392      16.80009054
P        6.63382720       2.13080608      12.42379054
P        6.63382720      39.78919392      13.83400946
P        6.63382720      12.61080608       9.45770946
P        6.63382720       8.34919392      16.80009054
P        9.95074080      12.61080608      12.42379054
P        9.95074080       8.34919392      13.83400946
P        9.95074080       2.13080608      18.21030946
P        9.95074080      39.78919392      25.55269054
P        6.63382720       2.13080608      21.17639054
P        6.63382720      39.78919392      22.58660946
P        6.63382720      12.61080608      18.21030946
P        6.63382720       8.34919392      25.55269054
P        9.95074080      12.61080608      21.17639054
P        9.95074080       8.34919392      22.58660946
P        9.95074080       2.13080608      26.96290946
P        9.95074080      39.78919392      34.30529054
P        6.63382720       2.13080608      29.92899054
P        6.63382720      39.78919392      31.33920946
P        6.63382720      12.61080608      26.96290946
P        6.63382720       8.34919392      34.30529054
P        9.95074080      12.61080608      29.92899054
P        9.95074080       8.34919392      31.33920946
P        9.95074080      23.09080608       0.70510946
P        9.95074080      18.82919392       8.04749054
P        6.63382720      23.09080608       3.67119054
P        6.63382720      18.82919392       5.08140946
P        6.63382720      33.57080608       0.70510946
P        6.63382720      29.30919392       8.04749054
P        9.95074080      33.57080608       3.67119054
P        9.95074080      29.30919392       5.08140946
P        9.95074080      23.09080608       9.45770946
P        9.95074080      18.82919392      16.80009054
P        6.63382720      23.09080608      12.42379054
P        6.63382720      18.82919392      13.83400946
P        6.63382720      33.57080608       9.45770946
P        6.63382720      29.30919392      16.80009054
P        9.95074080      33.57080608      12.42379054
P        9.95074080      29.30919392      13.83400946
P        9.95074080      23.09080608      18.21030946
P        9.95074080      18.82919392      25.55269054
P        6.63382720      23.09080608      21.17639054
P        6.63382720      18.82919392      22.58660946
P        6.63382720      33.57080608      18.21030946
P        6.63382720      29.30919392      25.55269054
P        9.95074080      33.57080608      21.17639054
P        9.95074080      29.30919392      22.58660946
P        9.95074080      23.09080608      26.96290946
P        9.95074080      18.82919392      34.30529054
P        6.63382720      23.09080608      29.92899054
P        6.63382720      18.82919392      31.33920946
P        6.63382720      33.57080608      26.96290946
P        6.63382720      29.30919392      34.30529054
P        9.95074080      33.57080608      29.92899054
P        9.95074080      29.30919392      31.33920946
P       16.58456800       2.13080608       0.70510946
P       16.58456800      39.78919392       8.04749054
P       13.26765440       2.13080608       3.67119054
P       13.26765440      39.78919392       5.08140946
P       13.26765440      12.61080608       0.70510946
P       13.26765440       8.34919392       8.04749054
P       16.58456800      12.61080608       3.67119054
P       16.58456800       8.34919392       5.08140946
P       16.58456800       2.13080608       9.45770946
P       16.58456800      39.78919392      16.80009054
P       13.26765440       2.13080608      12.42379054
P       13.26765440      39.78919392      13.83400946
P       13.26765440      12.61080608       9.45770946
P       13.26765440       8.34919392      16.80009054
P       16.58456800      12.61080608      12.42379054
P       16.58456800       8.34919392      13.83400946
P       16.58456800       2.13080608      18.21030946
P       16.58456800      39.78919392      25.55269054
P       13.26765440       2.13080608      21.17639054
P       13.26765440      39.78919392      22.58660946
P       13.26765440      12.61080608      18.21030946
P       13.26765440       8.34919392      25.55269054
P       16.58456800      12.61080608      21.17639054
P       16.58456800       8.34919392      22.58660946
P       16.58456800       2.13080608      26.96290946
P       16.58456800      39.78919392      34.30529054
P       13.26765440       2.13080608      29.92899054
P       13.26765440      39.78919392      31.33920946
P       13.26765440      12.61080608      26.96290946
P       13.26765440       8.34919392      34.30529054
P       16.58456800      12.61080608      29.92899054
P       16.58456800       8.34919392      31.33920946
P       16.58456800      23.09080608       0.70510946
P       16.58456800      18.82919392       8.04749054
P       13.26765440      23.09080608       3.67119054
P       13.26765440      18.82919392       5.08140946
P       13.26765440      33.57080608       0.70510946
P       13.26765440      29.30919392       8.04749054
P       16.58456800      33.57080608       3.67119054
P       16.58456800      29.30919392       5.08140946
P       16.58456800      23.09080608       9.45770946
P       16.58456800      18.82919392      16.80009054
P       13.26765440      23.09080608      12.42379054
P       13.26765440      18.82919392      13.83400946
P       13.26765440      33.57080608       9.45770946
P       13.26765440      29.30919392      16.80009054
P       16.58456800      33.57080608      12.42379054
P       16.58456800      29.30919392      13.83400946
P       16.58456800      23.09080608      18.21030946
P       16.58456800      18.82919392      25.55269054
P       13.26765440      23.09080608      21.17639054
P       13.26765440      18.82919392      22.58660946
P       13.26765440      33.57080608      18.21030946
P       13.26765440      29.30919392      25.55269054
P       16.58456800      33.57080608      21.17639054
P       16.58456800      29.30919392      22.58660946
P       16.58456800      23.09080608      26.96290946
P       16.58456800      18.82919392      34.30529054
P       13.26765440      23.09080608      29.92899054
P       13.26765440      18.82919392      31.33920946
P       13.26765440      33.57080608      26.96290946
P       13.26765440      29.30919392      34.30529054
P       16.58456800      33.57080608      29.92899054
P       16.58456800      29.30919392      31.33920946
P       23.21839520       2.13080608       0.70510946
P       23.21839520      39.78919392       8.04749054
P       19.90148160       2.13080608       3.67119054
P       19.90148160      39.78919392       5.08140946
P       19.90148160      12.61080608       0.70510946
P       19.90148160       8.34919392       8.04749054
P       23.21839520      12.61080608       3.67119054
P       23.21839520       8.34919392       5.08140946
P       23.21839520       2.13080608       9.45770946
P       23.21839520      39.78919392      16.80009054
P       19.90148160       2.13080608      12.42379054
P       19.90148160      39.78919392      13.83400946
P       19.90148160      12.61080608       9.45770946
P       19.90148160       8.34919392      16.80009054
P       23.21839520      12.61080608      12.42379054
P       23.21839520       8.34919392      13.83400946
P       23.21839520       2.13080608      18.21030946
P       23.21839520      39.78919392      25.55269054
P       19.90148160       2.13080608      21.17639054
P       19.90148160      39.78919392      22.58660946
P       19.90148160      12.61080608      18.21030946
P       19.90148160       8.34919392      25.55269054
P       23.21839520      12.61080608      21.17639054
P       23.21839520       8.34919392      22.58660946
P       23.21839520       2.13080608      26.96290946
P       23.21839520      39.78919392      34.30529054
P       19.90148160       2.13080608      29.92899054
P       19.90148160      39.78919392      31.33920946
P       19.90148160      12.61080608      26.96290946
P       19.90148160       8.34919392      34.30529054
P       23.21839520      12.61080608      29.92899054
P       23.21839520       8.34919392      31.33920946
P       23.21839520      23.09080608       0.70510946
P       23.21839520      18.82919392       8.04749054
P       19.90148160      23.09080608       3.67119054
P       19.90148160      18.82919392       5.08140946
P       19.90148160      33.57080608       0.70510946
P       19.90148160      29.30919392       8.04749054
P       23.21839520      33.57080608       3.67119054
P       23.21839520      29.30919392       5.08140946
P       23.21839520      23.09080608       9.45770946
P       23.21839520      18.82919392      16.80009054
P       19.90148160      23.09080608      12.42379054
P       19.90148160      18.82919392      13.83400946
P       19.90148160      33.57080608       9.45770946
P       19.90148160      29.30919392      16.80009054
P       23.21839520      33.57080608      12.42379054
P       23.21839520      29.30919392      13.83400946
P       23.21839520      23.09080608      18.21030946
P       23.21839520      18.82919392      25.55269054
P       19.90148160      23.09080608      21.17639054
P       19.90148160      18.82919392      22.58660946
P       19.90148160      33.57080608      18.21030946
P       19.90148160      29.30919392      25.55269054
P       23.21839520      33.57080608      21.17639054
P       23.21839520      29.30919392      22.58660946
P       23.21839520      23.09080608      26.96290946
P       23.21839520      18.82919392      34.30529054
P       19.90148160      23.09080608      29.92899054
P       19.90148160      18.82919392      31.33920946
P       19.90148160      33.57080608      26.96290946
P       19.90148160      29.30919392      34.30529054
P       23.21839520      33.57080608      29.92899054
P       23.21839520      29.30919392      31.33920946
P       29.85222240       2.13080608       0.70510946
P       29.85222240      39.78919392       8.04749054
P       26.53530880       2.13080608       3.67119054
P       26.53530880      39.78919392       5.08140946
P       26.53530880      12.61080608       0.70510946
P       26.53530880       8.34919392       8.04749054
P       29.85222240      12.61080608       3.67119054
P       29.85222240       8.34919392       5.08140946
P       29.85222240       2.13080608       9.45770946
P       29.85222240      39.78919392      16.80009054
P       26.53530880       2.13080608      12.42379054
P       26.53530880      39.78919392      13.83400946
P       26.53530880      12.61080608       9.45770946
P       26.53530880       8.34919392      16.80009054
P       29.85222240      12.61080608      12.42379054
P       29.85222240       8.34919392      13.83400946
P       29.85222240       2.13080608      18.21030946
P       29.85222240      39.78919392      25.55269054
P       26.53530880       2.13080608      21.17639054
P       26.53530880      39.78919392      22.58660946
P       26.53530880      12.61080608      18.21030946
P       26.53530880       8.34919392      25.55269054
P       29.85222240      12.61080608      21.17639054
P       29.85222240       8.34919392      22.58660946
P       29.85222240       2.13080608      26.96290946
P       29.85222240      39.78919392      34.30529054
P       26.53530880       2.13080608      29.92899054
P       26.53530880      39.78919392      31.33920946
P       26.53530880      12.61080608      26.96290946
P       26.53530880       8.34919392      34.30529054
P       29.85222240      12.61080608      29.92899054
P       29.85222240       8.34919392      31.33920946
P       29.85222240      23.09080608       0.70510946
P       29.85222240      18.82919392       8.04749054
P       26.53530880      23.09080608       3.67119054
P       26.53530880      18.82919392       5.08140946
P       26.53530880      33.57080608       0.70510946
P       26.53530880      29.30919392       8.04749054
P       29.85222240      33.57080608       3.67119054
P       29.85222240      29.30919392       5.08140946
P       29.85222240      23.09080608       9.45770946
P       29.85222240      18.82919392      16.80009054
P       26.53530880      23.09080608      12.42379054
P       26.53530880      18.82919392      13.83400946
P       26.53530880      33.57080608       9.45770946
P       26.53530880      29.30919392      16.80009054
P       29.85222240      33.57080608      12.42379054
P       29.85222240      29.30919392      13.83400946
P       29.85222240      23.09080608      18.21030946
P       29.85222240      18.82919392      25.55269054
P       26.53530880      23.09080608      21.17639054
P       26.53530880      18.82919392      22.58660946
P       26.53530880      33.57080608      18.21030946
P       26.53530880      29.30919392      25.55269054
P       29.85222240      33.57080608      21.17639054
P       29.85222240      29.30919392      22.58660946
P       29.85222240      23.09080608      26.96290946
P       29.85222240      18.82919392      34.30529054
P       26.53530880      23.09080608      29.92899054
P       26.53530880      18.82919392      31.33920946
P       26.53530880      33.57080608      26.96290946
P       26.53530880      29.30919392      34.30529054
P       29.85222240      33.57080608      29.92899054
P       29.85222240      29.30919392      31.33920946
