320
Lattice="33.136 -0.016568000000000003 0.0 -0.02095999999999998 41.91999999999996 0.0 0.0 0.0 35.0104" Properties=species:S:1:pos:R:3 pbc="T T T"
P        3.31253460       2.12914928       0.70510946
P        3.29370540      39.78753712       8.04749054
P       -0.00106540       2.13080608       3.67119054
P       -0.01989460      39.78919392       5.08140946
P       -0.00630540      12.61080608       0.70510946
P       -0.00417460       8.34919392       8.04749054
P        3.30729460      12.60914928       3.67119054
P        3.30942540       8.34753712       5.08140946
P        3.31253460       2.12914928       9.45770946
P        3.29370540      39.78753712      16.80009054
P       -0.00106540       2.13080608      12.42379054
P       -0.01989460      39.78919392      13.83400946
P       -0.00630540      12.61080608       9.45770946
P       -0.00417460       8.34919392      16.80009054
P        3.30729460      12.60914928      12.42379054
P        3.30942540       8.34753712      13.83400946
P        3.31253460       2.12914928      18.21030946
P        3.29370540      39.78753712      25.55269054
P       -0.00106540       2.13080608      21.17639054
P       -0.01989460      39.78919392      22.58660946
P       -0.00630540      12.61080608      18.21030946
P       -0.00417460       8.34919392      25.55269054
P        3.30729460      12.60914928      21.17639054
P        3.30942540       8.34753712      22.58660946
P        3.31253460       2.12914928      26.96290946
P        3.29370540      39.78753712      34.30529054
P       -0.00106540       2.13080608      29.92899054
P       -0.01989460      39.78919392      31.33920946
P       -0.00630540      12.61080608      26.96290946
P       -0.00417460       8.34919392      34.30529054
P        3.30729460      12.60914928      29.92899054
P        3.30942540       8.34753712      31.33920946
P        3.30205460      23.08914928       0.70510946
P        3.30418540      18.82753712       8.04749054
P       -0.01154540      23.09080608       3.67119054
P       -0.00941460      18.82919392       5.08140946
P       -0.01678540      33.57080608       0.70510946
P       -0.01465460      29.30919392       8.04749054
P        3.29681460      33.56914928       3.67119054
P        3.29894540      29.30753712       5.08140946
P        3.30205460      23.08914928       9.45770946
P        3.30418540      18.82753712      16.80009054
P       -0.01154540      23.09080608      12.42379054
P       -0.00941460      18.82919392      13.83400946
P       -0.01678540      33.57080608       9.45770946
P       -0.01465460      29.30919392      16.80009054
P        3.29681460      33.56914928      12.42379054
P        3.29894540      29.30753712      13.83400946
P        3.30205460      23.08914928      18.21030946
P        3.30418540      18.82753712      25.55269054
P       -0.01154540      23.09080608      21.17639054
P       -0.00941460      18.82919392      22.58660946
P       -0.01678540      33.57080608      18.21030946
P       -0.01465460      29.30919392      25.55269054
P        3.29681460      33.56914928      21.17639054
P        3.29894540      29.30753712      22.58660946
P        3.30205460      23.08914928      26.96290946
P        3.30418540      18.82753712      34.30529054
P       -0.01154540      23.09080608      29.92899054
P       -0.00941460      18.82919392      31.33920946
P       -0.01678540      33.57080608      26.96290946
P       -0.01465460      29.30919392      34.30529054
P        3.29681460      33.56914928      29.92899054
P        3.29894540      29.30753712      31.33920946
P        9.93973460       2.12583568       0.70510946
P        9.92090540      39.78422352       8.04749054
P        6.62613460       2.12749248       3.67119054
P        6.60730540      39.78588032       5.08140946
P        6.62089460      12.60749248       0.70510946
P        6.62302540       8.34588032       8.04749054
P        9.93449460      12.60583568       3.67119054
P        9.93662540       8.34422352       5.08140946
P        9.93973460       2.12583568       9.45770946
P        9.92090540      39.78422352      16.80009054
P        6.62613460       2.12749248      12.42379054
P        6.60730540      39.78588032      13.83400946
P        6.62089460      12.60749248       9.45770946
P        6.62302540       8.34588032      16.80009054
P        9.93449460      12.60583568      12.42379054
P        9.93662540       8.34422352      13.83400946
P        9.93973460       2.12583568      18.21030946
P        9.92090540      39.78422352      25.55269054
P        6.62613460       2.12749248      21.17639054
P        6.60730540      39.78588032      22.58660946
P        6.62089460      12.60749248      18.21030946
P        6.62302540       8.34588032      25.55269054
P        9.93449460      12.60583568      21.17639054
P        9.93662540       8.34422352      22.58660946
P        9.93973460       2.12583568      26.96290946
P        9.92090540      39.78422352      34.30529054
P        6.62613460       2.12749248      29.92899054
P        6.60730540      39.78588032      31.33920946
P        6.62089460      12.60749248      26.96290946
P        6.62302540       8.34588032      34.30529054
P        9.93449460      12.60583568      29.92899054
P        9.93662540       8.34422352      31.33920946
P        9.92925460      23.08583568       0.70510946
P        9.93138540      18.82422352       8.04749054
P        6.61565460      23.08749248       3.67119054
P        6.61778540      18.82588032       5.08140946
P        6.61041460      33.56749248       0.70510946
P        6.61254540      29.30588032       8.04749054
P        9.92401460      33.56583568       3.67119054
P        9.92614540      29.30422352       5.08140946
P        9.92925460      23.08583568       9.45770946
P        9.93138540      18.82422352      16.80009054
P        6.61565460      23.08749248      12.42379054
P        6.61778540      18.82588032      13.83400946
P        6.61041460      33.56749248       9.45770946
P        6.61254540      29.30588032      16.80009054
P        9.92401460      33.56583568      12.42379054
P        9.92614540      29.30422352      13.83400946
P        9.92925460      23.08583568      18.21030946
P        9.93138540      18.82422352      25.55269054
P        6.61565460      23.08749248      21.17639054
P        6.61778540      18.82588032      22.58660946
P        6.61041460      33.56749248      18.21030946
P        6.61254540      29.30588032      25.55269054
P        9.92401460      33.56583568      21.17639054
P        9.92614540      29.30422352      22.58660946
P        9.92925460      23.08583568      26.96290946
P        9.93138540      18.82422352      34.30529054
P        6.61565460      23.08749248      29.92899054
P        6.61778540      18.82588032      31.33920946
P        6.61041460      33.56749248      26.96290946
P        6.61254540      29.30588032      34.30529054
P        9.92401460      33.56583568      29.92899054
P        9.92614540      29.30422352      31.33920946
P       16.56693460       2.12252208       0.70510946
P       16.54810540      39.78090992       8.04749054
P       13.25333460       2.12417888       3.67119054
P       13.23450540      39.78256672       5.08140946
P       13.24809460      12.60417888       0.70510946
P       13.25022540       8.34256672       8.04749054
P       16.56169460      12.60252208       3.67119054
P       16.56382540       8.34090992       5.08140946
P       16.56693460       2.12252208       9.45770946
P       16.54810540      39.78090992      16.80009054
P       13.25333460       2.12417888      12.42379054
P       13.23450540      39.78256672      13.83400946
P       13.24809460      12.60417888       9.45770946
P       13.25022540       8.34256672      16.80009054
P       16.56169460      12.60252208      12.42379054
P       16.56382540       8.34090992      13.83400946
P       16.56693460       2.12252208      18.21030946
P       16.54810540      39.78090992      25.55269054
P       13.25333460       2.12417888      21.17639054
P       13.23450540      39.78256672      22.58660946
P       13.24809460      12.60417888      18.21030946
P       13.25022540       8.34256672      25.55269054
P       16.56169460      12.60252208      21.17639054
P       16.56382540       8.34090992      22.58660946
P       16.56693460       2.12252208      26.96290946
P       16.54810540      39.78090992      34.30529054
P       13.25333460       2.12417888      29.92899054
P       13.23450540      39.78256672      31.33920946
P       13.24809460      12.60417888      26.96290946
P       13.25022540       8.34256672      34.30529054
P       16.56169460      12.60252208      29.92899054
P       16.56382540       8.34090992      31.33920946
P       16.55645460      23.08252208       0.70510946
P       16.55858540      18.82090992       8.04749054
P       13.24285460      23.08417888       3.67119054
P       13.24498540      18.82256672       5.08140946
P       13.23761460      33.56417888       0.70510946
P       13.23974540      29.30256672       8.04749054
P       16.55121460      33.56252208       3.67119054
P       16.55334540      29.30090992       5.08140946
P       16.55645460      23.08252208       9.45770946
P       16.55858540      18.82090992      16.80009054
P       13.24285460      23.08417888      12.42379054
P       13.24498540      18.82256672      13.83400946
P       13.23761460      33.56417888       9.45770946
P       13.23974540      29.30256672      16.80009054
P       16.55121460      33.56252208      12.42379054
P       16.55334540      29.30090992      13.83400946
P       16.55645460      23.08252208      18.21030946
P       16.55858540      18.82090992      25.55269054
P       13.24285460      23.08417888      21.17639054
P       13.24498540      18.82256672      22.58660946
P       13.23761460      33.56417888      18.21030946
P       13.23974540      29.30256672      25.55269054
P       16.55121460      33.56252208      21.17639054
P       16.55334540      29.30090992      22.58660946
P       16.55645460      23.08252208      26.96290946
P       16.55858540      18.82090992      34.30529054
P       13.24285460      23.08417888      29.92899054
P       13.24498540      18.82256672      31.33920946
P       13.23761460      33.56417888      26.96290946
P       13.23974540      29.30256672      34.30529054
P       16.55121460      33.56252208      29.92899054
P       16.55334540      29.30090992      31.33920946
P       23.19413460       2.11920848       0.70510946
P       23.17530540      39.77759632       8.04749054
P       19.88053460       2.12086528       3.67119054
P       19.86170540      39.77925312       5.08140946
P       19.87529460      12.60086528       0.70510946
P       19.87742540       8.33925312       8.04749054
P       23.18889460      12.59920848       3.67119054
P       23.19102540       8.33759632       5.08140946
P       23.19413460       2.11920848       9.45770946
P       23.17530540      39.77759632      16.80009054
P       19.88053460       2.12086528      12.42379054
P       19.86170540      39.77925312      13.83400946
P       19.87529460      12.60086528       9.45770946
P       19.87742540       8.33925312      16.80009054
P       23.18889460      12.59920848      12.42379054
P       23.19102540       8.33759632      13.83400946
P       23.19413460       2.11920848      18.21030946
P       23.17530540      39.77759632      25.55269054
P       19.88053460       2.12086528      21.17639054
P       19.86170540      39.77925312      22.58660946
P       19.87529460      12.60086528      18.21030946
P       19.87742540       8.33925312      25.55269054
P       23.18889460      12.59920848      21.17639054
P       23.19102540       8.33759632      22.58660946
P       23.19413460       2.11920848      26.96290946
P       23.17530540      39.77759632      34.30529054
P       19.88053460       2.12086528      29.92899054
P       19.86170540      39.77925312      31.33920946
P       19.87529460      12.60086528      26.96290946
P       19.87742540       8.33925312      34.30529054
P       23.18889460      12.59920848      29.92899054
P       23.19102540       8.33759632      31.33920946
P       23.18365460      23.07920848       0.70510946
P       23.18578540      18.81759632       8.04749054
P       19.87005460      23.08086528       3.67119054
P       19.87218540      18.81925312       5.08140946
P       19.86481460      33.56086528       0.70510946
P       19.86694540      29.29925312       8.04749054
P       23.17841460      33.55920848       3.67119054
P       23.18054540      29.29759632       5.08140946
P       23.18365460      23.07920848       9.45770946
P       23.18578540      18.81759632      16.80009054
P       19.87005460      23.08086528      12.42379054
P       19.87218540      18.81925312      13.83400946
P       19.86481460      33.56086528       9.45770946
P       19.86694540      29.29925312      16.80009054
P       23.17841460      33.55920848      12.42379054
P       23.18054540      29.29759632      13.83400946
P       23.18365460      23.07920848      18.21030946
P       23.18578540      18.81759632      25.55269054
P       19.87005460      23.08086528      21.17639054
P       19.87218540      18.81925312      22.58660946
P       19.86481460      33.56086528      18.21030946
P       19.86694540      29.29925312      25.55269054
P       23.17841460      33.55920848      21.17639054
P       23.18054540      29.29759632      22.58660946
P       23.18365460      23.07920848      26.96290946
P       23.18578540      18.81759632      34.30529054
P       19.87005460      23.08086528      29.92899054
P       19.87218540      18.81925312      31.33920946
P       19.86481460      33.56086528      26.96290946
P       19.86694540      29.29925312      34.30529054
P       23.17841460      33.55920848      29.92899054
P       23.18054540      29.29759632      31.33920946
P       29.82133460       2.11589488       0.70510946
P       29.80250540      39.77428272       8.04749054
P       26.50773460       2.11755168       3.67119054
P       26.48890540      39.77593952       5.08140946
P       26.50249460      12.59755168       0.70510946
P       26.50462540       8.33593952       8.04749054
P       29.81609460      12.59589488       3.67119054
P       29.81822540       8.33428272       5.08140946
P       29.82133460       2.11589488       9.45770946
P       29.80250540      39.77428272      16.80009054
P       26.50773460       2.11755168      12.42379054
P       26.48890540      39.77593952      13.83400946
P       26.50249460      12.59755168       9.45770946
P       26.50462540       8.33593952      16.80009054
P       29.81609460      12.59589488      12.42379054
P       29.81822540       8.33428272      13.83400946
P       29.82133460       2.11589488      18.21030946
P       29.80250540      39.77428272      25.55269054
P       26.50773460       2.11755168      21.17639054
P       26.48890540      39.77593952      22.58660946
P       26.50249460      12.59755168      18.21030946
P       26.50462540       8.33593952      25.55269054
P       29.81609460      12.59589488      21.17639054
P       29.81822540       8.33428272      22.58660946
P       29.82133460       2.11589488      26.96290946
P       29.80250540      39.77428272      34.30529054
P       26.50773460       2.11755168      29.92899054
P       26.48890540      39.77593952      31.33920946
P       26.50249460      12.59755168      26.96290946
P       26.50462540       8.33593952      34.30529054
P       29.81609460      12.59589488      29.92899054
P       29.81822540       8.33428272      31.33920946
P       29.81085460      23.07589488       0.70510946
P       29.81298540      18.81428272       8.04749054
P       26.49725460      23.07755168       3.67119054
P       26.49938540      18.81593952       5.08140946
P       26.49201460      33.55755168       0.70510946
P       26.49414540      29.29593952       8.04749054
P       29.80561460      33.55589488       3.67119054
P       29.80774540      29.29428272       5.08140946
P       29.81085460      23.07589488       9.45770946
P       29.81298540      18.81428272      16.80009054
P       26.49725460      23.07755168      12.42379054
P       26.49938540      18.81593952      13.83400946
P       26.49201460      33.55755168       9.45770946
P       26.49414540      29.29593952      16.80009054
P       29.80561460      33.55589488      12.42379054
P       29.80774540      29.29428272      13.83400946
P       29.81085460      23.07589488      18.21030946
P       29.81298540      18.81428272      25.55269054
P       26.49725460      23.07755168      21.17639054
P       26.49938540      18.81593952      22.58660946
P       26.49201460      33.55755168      18.21030946
P       26.49414540      29.29593952      25.55269054
P       29.80561460      33.55589488      21.17639054
P       29.80774540      29.29428272      22.58660946
P       29.81085460      23.07589488      26.96290946
P       29.81298540      18.81428272      34.30529054
P       26.49725460      23.07755168      29.92899054
P       26.49938540      18.81593952      31.33920946
P       26.49201460      33.55755168      26.96290946
P       26.49414540      29.29593952      34.30529054
P       29.80561460      33.55589488      29.92899054
P       29.80774540      29.29428272      31.33920946
