8
Lattice="6.6272 0.0 0.0 0.0 20.95999999999998 0.0 0.0 0.0 8.7526" Properties=species:S:1:pos:R:3:vel:R:3 spacegroup="C m c e" unit_cell=conventional pbc="T T T"
P        3.31360000       2.13080608       0.70510946       0.00201322      -0.00257349       0.00092418
P        3.31360000      -2.13080608       8.04749054      -0.00497220       0.00185940       0.00335146
P        0.00000000       2.13080608       3.67119054      -0.00338259       0.00232363       0.00048631
P        0.00000000      -2.13080608       5.08140946       0.00117457      -0.00409021      -0.00428358
P        0.00000000      12.61080608       0.70510946       0.00003735       0.00290486       0.00295085
P        0.00000000       8.34919392       8.04749054      -0.00085446      -0.00305219      -0.00101949
P        3.31360000      12.61080608       3.67119054      -0.00189240       0.00092416      -0.00088389
P        3.31360000       8.34919392       5.08140946      -0.00243337       0.00164858      -0.00435298
