8
Lattice="3.3126 0.0 0.0 0.0 10.47899999999999 0.0 0.0 0.0 4.375299999999999" Properties=species:S:1:pos:R:3 spacegroup="C m c e" unit_cell=conventional pbc="T T T"
P        1.65630000       1.06530138       0.35247417
P        1.65630000      -1.06530138       4.02282583
P        0.00000000       1.06530138       1.83517583
P        0.00000000      -1.06530138       2.54012417
P        0.00000000       6.30480138       0.35247417
P        0.00000000       4.17419862       4.02282583
P        1.65630000       6.30480138       1.83517583
P        1.65630000       4.17419862       2.54012417
